LAMMPS (11 Aug 2017)
units           real
dimension       3
processors      * * *
boundary        p p p

atom_style      charge
neighbor        2.0 bin
neigh_modify    delay 0 every 1 check yes
timestep        1.0

read_data       du.dat
  orthogonal box = (0 0 0) to (28.2294 28.2294 28.2294)
  reading atoms ...
  5720 atoms

include		    pot_bio_glass
#DU pair stylewith pair_coeff	2 2 table   BKS.PO.8.12.new style
# DU with zbl
#NOTE: This script can be modified for different pair styles
# See in.elastic for more info.
# Choose potential
variable        Si equal 1
variable        P equal 2
variable        Ca equal 3
variable        Na equal 4
variable        O equal 5
group		P type 2
104 atoms in group P
group		O type 5
3130 atoms in group O
group		Na type 4
1076 atoms in group Na
group		Si type 1
922 atoms in group Si
group		Ca type 3
488 atoms in group Ca
pair_style	hybrid/overlay buck/coul/long 8.0 10.0 table linear 10000 #nb3b/harmonic
pair_coeff      * * buck/coul/long 0.0 1.0 0.0
pair_coeff	1 1 table   BKS.8.10.table.new SiSi #
  Should only be flagged at inflection points (../pair_table.cpp:481)
pair_coeff 	1 2 table   BKS.8.10.table.new PSi #
  Should only be flagged at inflection points (../pair_table.cpp:481)
pair_coeff	1 3 table   BKS.8.10.table.new CaSi #
  Should only be flagged at inflection points (../pair_table.cpp:481)
pair_coeff 	1 4 table   BKS.8.10.table.new NaSi #
  Should only be flagged at inflection points (../pair_table.cpp:481)
pair_coeff	1 5 table   BKS.8.10.table.new OSi#
  Should only be flagged at inflection points (../pair_table.cpp:481)
pair_coeff	2 2 table   BKS.8.10.table.new PP#
  Should only be flagged at inflection points (../pair_table.cpp:481)
pair_coeff	2 3 table   BKS.8.10.table.new PCa #
  Should only be flagged at inflection points (../pair_table.cpp:481)
pair_coeff 	2 4 table   BKS.8.10.table.new PNa #
  Should only be flagged at inflection points (../pair_table.cpp:481)
pair_coeff	2 5 table   BKS.8.10.table.new OP #
  Should only be flagged at inflection points (../pair_table.cpp:481)
pair_coeff	3 3 table   BKS.8.10.table.new CaCa #
  Should only be flagged at inflection points (../pair_table.cpp:481)
pair_coeff	3 4 table   BKS.8.10.table.new NaCa #
  Should only be flagged at inflection points (../pair_table.cpp:481)
pair_coeff	3 5 table   BKS.8.10.table.new OCa#
  Should only be flagged at inflection points (../pair_table.cpp:481)
pair_coeff	4 4 table   BKS.8.10.table.new NaNa#
  Should only be flagged at inflection points (../pair_table.cpp:481)
pair_coeff	4 5 table   BKS.8.10.table.new ONa#
  Should only be flagged at inflection points (../pair_table.cpp:481)
pair_coeff	5 5 table   BKS.8.10.table.new OO#
  Should only be flagged at inflection points (../pair_table.cpp:481)

kspace_style    pppm 1.0e-5	#ewald  1.0e-6

compute 	1 all coord/atom cutoff 1.8
compute		2 all coord/atom cutoff 1.8
compute		P P reduce ave c_1
compute		O O reduce ave c_2
compute		OO O reduce ave c_1

# outputs
thermo          1000
thermo_style    custom step time etotal temp press density vol c_P c_O c_OO

restart         1000 restart_1.lammps restart_2.lammps

write_data      mini.dat
PPPM initialization ...
  G vector (1/distance) = 0.338781
  grid = 40 40 40
  stencil order = 5
  estimated absolute RMS force accuracy = 0.00321771
  estimated relative force accuracy = 9.69003e-06
  3d grid and FFT values/proc = 19683 8000
  update every 1 steps, delay 0 steps, check yes
write_restart   mini.rest
PPPM initialization ...
  G vector (1/distance) = 0.338781
  grid = 40 40 40
  stencil order = 5
  estimated absolute RMS force accuracy = 0.00321771
  estimated relative force accuracy = 9.69003e-06
  3d grid and FFT values/proc = 19683 8000

# Heating to 4000K followed by an NVE run
fix             1 all npt temp 4000 4000 100 iso 0 0 100
fix 	        var_t all dt/reset 2 0.1 1.0 0.1  units box
run             60000
PPPM initialization ...
  G vector (1/distance) = 0.338781
  grid = 40 40 40
  stencil order = 5
  estimated absolute RMS force accuracy = 0.00321771
  estimated relative force accuracy = 9.69003e-06
  3d grid and FFT values/proc = 19683 8000
Step Time TotEng Temp Press Density Volume c_P c_O c_OO
0            0    1234174.5            0     13748534    9.1158462    22495.906    7.4615385    6.1319489    6.1319489
Averages over the last 31 of 61 rows, steps 30000 to 60000:
TotEng Temp Press Density Volume c_P c_O c_OO
-1.46636e+06 4005.9 -259.298 1.83166 111969 3.94851 1.08182 1.08182
Loop time of 964.322 on 8 procs for 60000 steps with 5720 atoms

unfix           1
fix             1 all nve
run             60000
PPPM initialization ...
  G vector (1/distance) = 0.322894
  grid = 54 54 54
  stencil order = 5
  estimated absolute RMS force accuracy = 0.00410732
  estimated relative force accuracy = 1.23691e-05
  3d grid and FFT values/proc = 39304 20412
Step Time TotEng Temp Press Density Volume c_P c_O c_OO
60000    59970.745   -1466292.4    4055.1684    162.40083    1.8182913    112781.28    3.9423077    1.0846645    1.0846645
Averages over the last 31 of 61 rows, steps 90000 to 120000:
TotEng Temp Press Density Volume c_P c_O c_OO
-1.46623e+06 3999.96 341.317 1.81829 112781 3.94758 1.0828 1.0828
Loop time of 1095.03 on 8 procs for 60000 steps with 5720 atoms

uunfix           1
unfix 	     var_t

write_data      mini.dat
PPPM initialization ...
  G vector (1/distance) = 0.322894
  grid = 54 54 54
  stencil order = 5
  estimated absolute RMS force accuracy = 0.00410732
  estimated relative force accuracy = 1.23691e-05
  3d grid and FFT values/proc = 39304 20412
write_restart   mini.rest
PPPM initialization ...
  G vector (1/distance) = 0.322894
  grid = 54 54 54
  stencil order = 5
  estimated absolute RMS force accuracy = 0.00410732
  estimated relative force accuracy = 1.23691e-05
  3d grid and FFT values/proc = 39304 20412

# cooling @ 5K/ps
fix             1 all npt temp 4000 300 100 iso 0 0 1000
run             740000  # 3700000/5
PPPM initialization ...
  G vector (1/distance) = 0.322894
  grid = 54 54 54
  stencil order = 5
  estimated absolute RMS force accuracy = 0.00410732
  estimated relative force accuracy = 1.23691e-05
  3d grid and FFT values/proc = 39304 20412
Step Time TotEng Temp Press Density Volume c_P c_O c_OO
120000    119970.75     -1466551    4009.6976    1470.1355    1.8182913    112781.28    3.9615385     1.086262     1.086262
Averages over the last 371 of 741 rows, steps 490000 to 860000:
TotEng Temp Press Density Volume c_P c_O c_OO
-1.56831e+06 1224.69 147.273 2.6568 77385.2 3.99966 1.28709 1.28709
Loop time of 30656.8 on 8 procs for 740000 steps with 5720 atoms

unfix           1

# 300K
# statistical average

fix             1 all npt temp 300 300 100 iso 0 0 1000

run             60000
PPPM initialization ...
  G vector (1/distance) = 0.327951
  grid = 50 50 50
  stencil order = 5
  estimated absolute RMS force accuracy = 0.00370726
  estimated relative force accuracy = 1.11643e-05
  3d grid and FFT values/proc = 32768 17500
Step Time TotEng Temp Press Density Volume c_P c_O c_OO
860000    859970.75   -1596456.5    302.10702   -26.190335     2.860125    71699.391            4    1.3111821    1.3111821
Averages over the last 31 of 61 rows, steps 890000 to 920000:
TotEng Temp Press Density Volume c_P c_O c_OO
-1.59654e+06 299.545 -216.607 2.85639 71793.3 4 1.3111 1.3111
Loop time of 1438.49 on 8 procs for 60000 steps with 5720 atoms

unfix           1

# statistical average 300K NVE
dump           2 all custom 1000 md.lammpstrj id type x y z
fix            1 all nve

run            10000
PPPM initialization ...
  G vector (1/distance) = 0.327954
  grid = 50 50 50
  stencil order = 5
  estimated absolute RMS force accuracy = 0.00370676
  estimated relative force accuracy = 1.11628e-05
  3d grid and FFT values/proc = 32768 17500
Step Time TotEng Temp Press Density Volume c_P c_O c_OO
920000    919970.75   -1596416.6    302.78948     562.5777    2.8605259    71689.342            4    1.3111821    1.3111821
Averages over the last 6 of 11 rows, steps 925000 to 930000:
TotEng Temp Press Density Volume c_P c_O c_OO
-1.59641e+06 301.33 1214.57 2.86053 71689.3 4 1.31113 1.31113
Loop time of 190.391 on 8 procs for 10000 steps with 5720 atoms

unfix          1
undump 	       2

write_data      final.dat
PPPM initialization ...
  G vector (1/distance) = 0.327954
  grid = 50 50 50
  stencil order = 5
  estimated absolute RMS force accuracy = 0.00370676
  estimated relative force accuracy = 1.11628e-05
  3d grid and FFT values/proc = 32768 17500
write_restart   final.rest
PPPM initialization ...
  G vector (1/distance) = 0.327954
  grid = 50 50 50
  stencil order = 5
  estimated absolute RMS force accuracy = 0.00370676
  estimated relative force accuracy = 1.11628e-05
  3d grid and FFT values/proc = 32768 17500

l time: 6:31:50
